# created with PyMOL 2.5.0
@<TRIPOS>MOLECULE
[00]H8H_452 [X]
73 78 1                 
SMALL
USER_CHARGES
@<TRIPOS>ATOM
1	  C1	11.313	-9.768	-4.014	C.3	1	11	0.000	
2	  C2	12.551	-9.773	-3.106	C.3	1	11	0.000	
3	  N1	12.195	-10.211	-1.760	N.3	1	11	0.000	
4	  C3	13.347	-10.353	-0.849	C.3	1	11	0.000	
5	  C4	11.429	-11.435	-1.680	C.3	1	11	0.000	
6	  C5	10.354	-11.584	-2.740	C.3	1	11	0.000	
7	  N2	10.741	-11.102	-4.052	N.3	1	11	0.000	
8	  C6	9.775	-11.349	-5.161	C.3	1	11	0.000	
9	  C7	8.506	-10.385	-5.273	C.3	1	11	0.000	
10	  O1	7.548	-11.170	-6.059	O.3	1	11	0.000	
11	  C8	6.427	-10.676	-6.642	C.2	1	11	0.000	
12	  C9	6.154	-9.358	-6.745	C.2	1	11	0.000	
13	 C10	4.935	-9.016	-7.214	C.2	1	11	0.000	
14	  N3	4.739	-7.729	-7.341	N.2	1	11	0.000	
15	 C11	3.588	-7.359	-7.811	C.2	1	11	0.000	
16	  N4	2.657	-8.155	-8.332	N.2	1	11	0.000	
17	 C12	2.936	-9.443	-8.229	C.2	1	11	0.000	
18	 C13	4.085	-9.976	-7.653	C.2	1	11	0.000	
19	 C14	4.376	-11.305	-7.563	C.2	1	11	0.000	
20	 C15	5.512	-11.632	-6.938	C.2	1	11	0.000	
21	  O2	3.464	-12.240	-7.938	O.3	1	11	0.000	
22	 C16	3.568	-13.636	-7.652	C.3	1	11	0.000	
23	 C17	3.260	-13.792	-6.156	C.3	1	11	0.000	
24	 C18	3.084	-15.296	-5.723	C.3	1	11	0.000	
25	  O3	2.092	-15.874	-6.612	O.3	1	11	0.000	
26	 C19	2.342	-15.785	-8.016	C.3	1	11	0.000	
27	 C20	2.472	-14.261	-8.441	C.3	1	11	0.000	
28	  N5	2.080	-10.187	-8.876	N.pl3	1	11	0.000	
29	 C21	0.942	-9.931	-9.506	C.2	1	11	0.000	
30	 C22	0.833	-9.323	-10.757	C.2	1	11	0.000	
31	  O4	1.862	-8.811	-11.566	O.3	1	11	0.000	
32	 C23	1.322	-8.597	-12.862	C.3	1	11	0.000	
33	  O5	-0.128	-8.768	-12.721	O.3	1	11	0.000	
34	 C24	-0.335	-9.174	-11.426	C.2	1	11	0.000	
35	 C25	-1.521	-9.404	-10.801	C.2	1	11	0.000	
36	 C26	-1.471	-9.862	-9.514	C.2	1	11	0.000	
37	 C27	-0.278	-10.110	-8.811	C.2	1	11	0.000	
38	 C28	-0.415	-10.790	-7.203	C.3	1	11	0.000	
39	 H01	11.600	-9.465	-5.021	 H	1	11	0.000	
40	 H02	10.576	-9.066	-3.624	 H	1	11	0.000	
41	 H03	12.953	-8.761	-3.052	 H	1	11	0.000	
42	 H04	13.298	-10.451	-3.519	 H	1	11	0.000	
43	 H05	14.152	-9.696	-1.176	 H	1	11	0.000	
44	 H06	13.046	-10.082	0.163	 H	1	11	0.000	
45	 H07	13.695	-11.386	-0.860	 H	1	11	0.000	
46	 H08	10.911	-11.410	-0.721	 H	1	11	0.000	
47	 H09	12.118	-12.274	-1.774	 H	1	11	0.000	
48	 H10	9.511	-10.972	-2.419	 H	1	11	0.000	
49	 H11	10.100	-12.641	-2.824	 H	1	11	0.000	
50	 H12	9.355	-12.331	-4.943	 H	1	11	0.000	
51	 H13	10.328	-11.270	-6.097	 H	1	11	0.000	
52	 H14	8.742	-9.423	-5.728	 H	1	11	0.000	
53	 H15	8.104	-10.153	-4.286	 H	1	11	0.000	
54	 H16	6.886	-8.602	-6.462	 H	1	11	0.000	
55	 H17	3.361	-6.293	-7.776	 H	1	11	0.000	
56	 H18	5.704	-12.670	-6.667	 H	1	11	0.000	
57	 H19	4.538	-14.074	-7.887	 H	1	11	0.000	
58	 H20	2.317	-13.282	-5.960	 H	1	11	0.000	
59	 H21	4.080	-13.358	-5.583	 H	1	11	0.000	
60	 H22	2.766	-15.369	-4.683	 H	1	11	0.000	
61	 H23	4.030	-15.828	-5.818	 H	1	11	0.000	
62	 H24	1.515	-16.241	-8.560	 H	1	11	0.000	
63	 H25	3.268	-16.308	-8.255	 H	1	11	0.000	
64	 H26	2.695	-14.190	-9.505	 H	1	11	0.000	
65	 H27	1.534	-13.743	-8.240	 H	1	11	0.000	
66	 H28	2.340	-11.163	-8.902	 H	1	11	0.000	
67	 H29	1.740	-9.290	-13.592	 H	1	11	0.000	
68	 H30	1.555	-7.591	-13.210	 H	1	11	0.000	
69	 H31	-2.472	-9.229	-11.306	 H	1	11	0.000	
70	 H32	-2.415	-10.047	-9.001	 H	1	11	0.000	
71	 H33	-1.469	-10.899	-6.944	 H	1	11	0.000	
72	 H34	0.067	-11.767	-7.179	 H	1	11	0.000	
73	 H35	0.068	-10.127	-6.486	 H	1	11	0.000	
@<TRIPOS>BOND
1 1 2 1
2 1 7 1
3 2 3 1
4 3 4 1
5 3 5 1
6 5 6 1
7 6 7 1
8 7 8 1
9 8 9 1
10 9 10 1
11 10 11 1
12 11 12 ar
13 11 20 ar
14 12 13 ar
15 13 14 ar
16 13 18 ar
17 14 15 ar
18 15 16 ar
19 16 17 ar
20 17 18 ar
21 17 28 2
22 18 19 ar
23 19 20 ar
24 19 21 1
25 21 22 1
26 22 23 1
27 22 27 1
28 23 24 1
29 24 25 1
30 25 26 1
31 26 27 1
32 28 29 1
33 29 30 ar
34 29 37 ar
35 30 31 1
36 30 34 ar
37 31 32 1
38 32 33 1
39 33 34 1
40 34 35 ar
41 35 36 ar
42 36 37 ar
43 37 38 1
44 1 39 1
45 1 40 1
46 2 41 1
47 2 42 1
48 4 43 1
49 4 44 1
50 4 45 1
51 5 46 1
52 5 47 1
53 6 48 1
54 6 49 1
55 8 50 1
56 8 51 1
57 9 52 1
58 9 53 1
59 12 54 1
60 15 55 1
61 20 56 1
62 22 57 1
63 23 58 1
64 23 59 1
65 24 60 1
66 24 61 1
67 26 62 1
68 26 63 1
69 27 64 1
70 27 65 1
71 28 66 1
72 32 67 1
73 32 68 1
74 35 69 1
75 36 70 1
76 38 71 1
77 38 72 1
78 38 73 1
@<TRIPOS>SUBSTRUCTURE
1	11	1	GROUP	1 POS	1
