hits_docked
 OpenBabel04272412503D

 25 28  0  0  0  0  0  0  0  0999 V2000
   -0.9480  -12.3370   -8.8440 C   0  0  0  0  0  3  0  0  0  0  0  0
   -0.9690  -11.0750   -8.4280 C   0  0  0  0  0  0  0  0  0  0  0  0
   -0.6500  -13.1420   -7.8500 C   0  0  0  0  0  0  0  0  0  0  0  0
   -0.7170  -11.0680   -7.1460 N   0  0  0  0  0  0  0  0  0  0  0  0
   -0.4830  -12.3530   -6.7670 N   0  0  0  0  0  2  0  0  0  0  0  0
   -1.4100   -9.9450   -9.1060 N   0  0  0  0  0  2  0  0  0  0  0  0
   -0.9010   -8.6830   -9.1610 C   0  0  0  0  0  0  0  0  0  0  0  0
    6.1200  -10.1880   -6.5710 N   0  0  0  0  0  0  0  0  0  0  0  0
    5.1390   -8.3720   -7.1780 N   0  0  0  0  0  0  0  0  0  0  0  0
    6.0130   -9.3450   -7.5500 C   0  0  0  0  0  3  0  0  0  0  0  0
    0.5310   -8.3620   -8.8840 C   0  0  0  0  0  0  0  0  0  0  0  0
    5.3420   -9.8190   -5.5930 C   0  0  0  0  0  3  0  0  0  0  0  0
    4.7160   -8.7060   -5.9340 C   0  0  0  0  0  3  0  0  0  0  0  0
   -1.7000   -7.7550   -9.4620 O   0  0  0  0  0  0  0  0  0  0  0  0
   -0.5850  -14.6580   -7.7870 C   0  0  0  0  0  3  0  0  0  0  0  0
    4.5340   -7.3740   -8.0480 C   0  0  0  0  0  2  0  0  0  0  0  0
    1.5370   -9.0940   -9.3750 C   0  0  0  0  0  3  0  0  0  0  0  0
    0.8310   -7.2870   -8.1480 C   0  0  0  0  0  3  0  0  0  0  0  0
    3.0880   -7.7200   -8.3590 C   0  0  0  0  0  0  0  0  0  0  0  0
    2.0960   -6.9760   -7.8740 C   0  0  0  0  0  3  0  0  0  0  0  0
    2.8030   -8.7760   -9.1170 C   0  0  0  0  0  3  0  0  0  0  0  0
    0.5320  -15.3250   -8.6060 C   0  0  0  0  0  2  0  0  0  0  0  0
   -1.8390  -15.3280   -8.3570 C   0  0  0  0  0  2  0  0  0  0  0  0
   -1.4310  -16.7990   -8.4830 C   0  0  0  0  0  2  0  0  0  0  0  0
    0.0680  -16.7750   -8.8190 C   0  0  0  0  0  2  0  0  0  0  0  0
  1  2  1  0  0  0  0
  1  3  2  0  0  0  0
  2  4  2  0  0  0  0
  3 15  1  0  0  0  0
  3  5  1  0  0  0  0
  4  5  1  0  0  0  0
  6  2  1  0  0  0  0
  7  6  1  0  0  0  0
  7 11  1  0  0  0  0
  8 12  1  0  0  0  0
  9 13  1  0  0  0  0
 10  9  1  0  0  0  0
 10  8  2  0  0  0  0
 11 18  1  0  0  0  0
 13 12  2  0  0  0  0
 14  7  2  0  0  0  0
 16  9  1  0  0  0  0
 17 21  1  0  0  0  0
 17 11  2  0  0  0  0
 18 20  2  0  0  0  0
 19 16  1  0  0  0  0
 19 20  1  0  0  0  0
 21 19  2  0  0  0  0
 22 15  1  0  0  0  0
 23 15  1  0  0  0  0
 24 23  1  0  0  0  0
 25 22  1  0  0  0  0
 25 24  1  0  0  0  0
M  END
$$$$
