REMARK  Name = hits_docked
REMARK  8 active torsions:
REMARK  status: ('A' for Active; 'I' for Inactive)
REMARK    1  A    between atoms: N_7  and  C_8
REMARK    2  A    between atoms: C_8  and  C_9
REMARK    3  A    between atoms: C_9  and  O_10
REMARK    4  A    between atoms: O_10  and  C_11
REMARK    5  A    between atoms: C_17  and  N_28
REMARK    6  A    between atoms: C_19  and  O_21
REMARK    7  A    between atoms: O_21  and  C_22
REMARK    8  A    between atoms: N_28  and  C_29
REMARK                            x       y       z     vdW  Elec       q    Type
REMARK                         _______ _______ _______ _____ _____    ______ ____
ROOT
ATOM      1  C   UNL     1       6.427 -10.676  -6.642  0.00  0.00    +0.000 C 
ATOM      2  C   UNL     1       6.154  -9.358  -6.745  0.00  0.00    +0.000 C 
ATOM      3  C   UNL     1       4.935  -9.016  -7.214  0.00  0.00    +0.000 C 
ATOM      4  N   UNL     1       4.739  -7.729  -7.341  0.00  0.00    +0.000 NA
ATOM      5  C   UNL     1       3.588  -7.359  -7.811  0.00  0.00    +0.000 C 
ATOM      6  N   UNL     1       2.657  -8.155  -8.332  0.00  0.00    +0.000 NA
ATOM      7  C   UNL     1       2.936  -9.443  -8.229  0.00  0.00    +0.000 C 
ATOM      8  C   UNL     1       4.085  -9.976  -7.653  0.00  0.00    +0.000 C 
ATOM      9  C   UNL     1       4.376 -11.305  -7.563  0.00  0.00    +0.000 C 
ATOM     10  C   UNL     1       5.512 -11.632  -6.938  0.00  0.00    +0.000 C 
ENDROOT
BRANCH   1  11
ATOM     11  O   UNL     1       7.548 -11.170  -6.059  0.00  0.00    +0.000 OA
BRANCH  11  12
ATOM     12  C   UNL     1       8.506 -10.385  -5.273  0.00  0.00    +0.000 C 
BRANCH  12  13
ATOM     13  C   UNL     1       9.775 -11.349  -5.161  0.00  0.00    +0.000 C 
BRANCH  13  20
ATOM     14  C   UNL     1      11.313  -9.768  -4.014  0.00  0.00    +0.000 C 
ATOM     15  C   UNL     1      12.551  -9.773  -3.106  0.00  0.00    +0.000 C 
ATOM     16  N   UNL     1      12.195 -10.211  -1.760  0.00  0.00    +0.000 NA
ATOM     17  C   UNL     1      13.347 -10.353  -0.849  0.00  0.00    +0.000 C 
ATOM     18  C   UNL     1      11.429 -11.435  -1.680  0.00  0.00    +0.000 C 
ATOM     19  C   UNL     1      10.354 -11.584  -2.740  0.00  0.00    +0.000 C 
ATOM     20  N   UNL     1      10.741 -11.102  -4.052  0.00  0.00    +0.000 NA
ENDBRANCH  13  20
ENDBRANCH  12  13
ENDBRANCH  11  12
ENDBRANCH   1  11
BRANCH   7  21
ATOM     21  N   UNL     1       2.080 -10.187  -8.876  0.00  0.00    +0.000 NA
BRANCH  21  22
ATOM     22  C   UNL     1       0.942  -9.931  -9.506  0.00  0.00    +0.000 C 
ATOM     23  C   UNL     1       0.833  -9.323 -10.757  0.00  0.00    +0.000 C 
ATOM     24  O   UNL     1       1.862  -8.811 -11.566  0.00  0.00    +0.000 OA
ATOM     25  C   UNL     1       1.322  -8.597 -12.862  0.00  0.00    +0.000 C 
ATOM     26  O   UNL     1      -0.128  -8.768 -12.721  0.00  0.00    +0.000 OA
ATOM     27  C   UNL     1      -0.335  -9.174 -11.426  0.00  0.00    +0.000 C 
ATOM     28  C   UNL     1      -1.521  -9.404 -10.801  0.00  0.00    +0.000 C 
ATOM     29  C   UNL     1      -1.471  -9.862  -9.514  0.00  0.00    +0.000 C 
ATOM     30  C   UNL     1      -0.278 -10.110  -8.811  0.00  0.00    +0.000 C 
ATOM     31  C   UNL     1      -0.415 -10.790  -7.203  0.00  0.00    +0.000 C 
ENDBRANCH  21  22
ENDBRANCH   7  21
BRANCH   9  32
ATOM     32  O   UNL     1       3.464 -12.240  -7.938  0.00  0.00    +0.000 OA
BRANCH  32  33
ATOM     33  C   UNL     1       3.568 -13.636  -7.652  0.00  0.00    +0.000 C 
ATOM     34  C   UNL     1       3.260 -13.792  -6.156  0.00  0.00    +0.000 C 
ATOM     35  C   UNL     1       3.084 -15.296  -5.723  0.00  0.00    +0.000 C 
ATOM     36  O   UNL     1       2.092 -15.874  -6.612  0.00  0.00    +0.000 OA
ATOM     37  C   UNL     1       2.342 -15.785  -8.016  0.00  0.00    +0.000 C 
ATOM     38  C   UNL     1       2.472 -14.261  -8.441  0.00  0.00    +0.000 C 
ENDBRANCH  32  33
ENDBRANCH   9  32
TORSDOF 8
