hits_docked
 OpenBabel04272412503D

 29 33  0  0  0  0  0  0  0  0999 V2000
    1.8320   -9.1750   -8.2670 C   0  0  0  0  0  0  0  0  0  0  0  0
    2.3940  -10.2240   -7.7370 N   0  0  0  0  0  0  0  0  0  0  0  0
    1.6130  -11.2560   -7.7850 C   0  0  0  0  0  0  0  0  0  0  0  0
    0.4500  -10.8770   -8.3880 N   0  0  0  0  0  0  0  0  0  0  0  0
    0.6150   -9.5540   -8.6620 C   0  0  0  0  0  0  0  0  0  0  0  0
    5.8250   -9.9650   -6.6800 C   0  0  0  0  0  0  0  0  0  0  0  0
    4.6860   -8.3760   -7.2860 C   0  0  0  0  0  0  0  0  0  0  0  0
    4.6900   -9.7090   -7.3390 O   0  0  0  0  0  0  0  0  0  0  0  0
    2.4830   -7.8290   -8.3600 C   0  0  0  0  0  0  0  0  0  0  0  0
    6.4330   -8.8650   -6.3460 N   0  0  0  0  0  0  0  0  0  0  0  0
    3.7340   -7.5660   -7.8870 N   0  0  0  0  0  2  0  0  0  0  0  0
    5.7580   -7.9040   -6.7400 N   0  0  0  0  0  0  0  0  0  0  0  0
    6.3160  -11.1370   -6.2830 C   0  0  0  0  0  0  0  0  0  0  0  0
    7.4050  -11.7530   -6.8210 O   0  0  0  0  0  0  0  0  0  0  0  0
    2.0590  -12.4680   -7.4490 C   0  0  0  0  0  0  0  0  0  0  0  0
    1.8770   -6.8520   -8.8740 O   0  0  0  0  0  0  0  0  0  0  0  0
    5.8110  -11.8780   -5.3010 C   0  0  0  0  0  3  0  0  0  0  0  0
    7.4850  -12.8900   -6.0940 C   0  0  0  0  0  3  0  0  0  0  0  0
    6.5380  -12.9670   -5.1850 C   0  0  0  0  0  3  0  0  0  0  0  0
   -0.8350  -11.5670   -8.3230 C   0  0  0  0  0  2  0  0  0  0  0  0
   -0.4980   -8.7610   -9.3370 C   0  0  0  0  0  2  0  0  0  0  0  0
    2.3480  -13.3870   -8.3800 C   0  0  0  0  0  3  0  0  0  0  0  0
    2.2020  -12.8120   -6.1650 C   0  0  0  0  0  3  0  0  0  0  0  0
   -1.3520  -11.8350   -9.7440 C   0  0  0  0  0  2  0  0  0  0  0  0
   -0.9980   -9.4160  -10.6360 C   0  0  0  0  0  2  0  0  0  0  0  0
    2.6350  -14.0230   -5.8210 C   0  0  0  0  0  3  0  0  0  0  0  0
    2.7710  -14.6010   -8.0400 C   0  0  0  0  0  3  0  0  0  0  0  0
   -1.9700  -10.5900  -10.4080 C   0  0  0  0  0  2  0  0  0  0  0  0
    2.9190  -14.9190   -6.7590 C   0  0  0  0  0  3  0  0  0  0  0  0
  1  2  1  0  0  0  0
  3  2  2  0  0  0  0
  3 15  1  0  0  0  0
  4 20  1  0  0  0  0
  4  3  1  0  0  0  0
  5  4  1  0  0  0  0
  5  1  2  0  0  0  0
  6 10  2  0  0  0  0
  6 13  1  0  0  0  0
  7 12  2  0  0  0  0
  8  7  1  0  0  0  0
  8  6  1  0  0  0  0
  9  1  1  0  0  0  0
  9 11  1  0  0  0  0
 11  7  1  0  0  0  0
 12 10  1  0  0  0  0
 13 17  2  0  0  0  0
 14 13  1  0  0  0  0
 14 18  1  0  0  0  0
 15 23  1  0  0  0  0
 16  9  2  0  0  0  0
 17 19  1  0  0  0  0
 18 19  2  0  0  0  0
 21  5  1  0  0  0  0
 22 27  1  0  0  0  0
 22 15  2  0  0  0  0
 23 26  2  0  0  0  0
 24 20  1  0  0  0  0
 25 28  1  0  0  0  0
 25 21  1  0  0  0  0
 27 29  2  0  0  0  0
 28 24  1  0  0  0  0
 29 26  1  0  0  0  0
M  END
$$$$
